Output_case1_3p/output_current_1.csv
# Output_case1_3p\output_current_1.csv run at 2000-01-01 00:01:00 EST on 907 links
link_name,currA_mag,currA_angle,currB_mag,currB_angle,currC_mag,currC_angle
Source_Impedance,0.137472,-0.317508,0.137472,3.871283,0.137472,1.776888
TR1,0.137472,-0.317508,0.137472,3.871283,0.137472,1.776888
LINE1,3.635085,-0.841106,3.635085,3.347684,3.635085,1.253289
LINE2,3.635085,-0.841106,3.635085,3.347684,3.635085,1.253289
LINE3,3.635085,-0.841106,3.635085,3.347684,3.635085,1.253289
LINE4,3.635085,-0.841106,3.635085,3.347684,3.635085,1.253289
LINE5,3.635085,-0.841106,3.635085,3.347684,3.635085,1.253289
LINE6,3.635085,-0.841106,3.635085,3.347684,3.635085,1.253289
LINE7,3.635085,-0.841106,3.635085,3.347684,3.635085,1.253289
LINE8,3.635085,-0.841106,3.635085,3.347684,3.635085,1.253289
LINE9,3.635085,-0.841106,3.635085,3.347684,3.635085,1.253289
LINE10,3.635085,-0.841106,3.635085,3.347684,3.635085,1.253289
LINE11,3.635085,-0.841106,3.635085,3.347684,3.635085,1.253289
LINE12,3.635085,-0.841106,3.635085,3.347684,3.635085,1.253289
LINE13,3.635085,-0.841106,3.635085,3.347684,3.635085,1.253289
LINE14,3.635085,-0.841106,3.635085,3.347684,3.635085,1.253289
LINE15,0.000000,2.558061,0.000000,3.718948,0.000000,1.575347
LINE16,3.635085,-0.841106,3.635085,3.347684,3.635085,1.253289
LINE17,0.000000,2.871682,0.000000,3.580308,0.000000,1.578232
LINE18,3.635085,-0.841106,3.635085,3.347684,3.635085,1.253289
LINE19,0.000000,2.794910,0.000000,3.902059,0.000000,1.574008
LINE20,3.635085,-0.841106,3.635085,3.347684,3.635085,1.253289
LINE21,0.000000,3.116661,0.000000,3.438411,0.000000,1.574332
LINE22,3.635085,-0.841106,3.635085,3.347684,3.635085,1.253289
LINE23,0.000000,3.281809,0.000000,3.675260,0.000000,1.568192
LINE24,3.635085,-0.841106,3.635085,3.347684,3.635085,1.253289
LINE25,0.000000,3.902059,0.000000,3.849476,0.000000,1.568451
LINE26,0.230482,-0.841252,0.230482,3.347538,0.230482,1.253143
LINE27,3.404603,-0.841096,3.404603,3.347694,3.404603,1.253299
LINE28,0.000000,4.687457,0.000000,3.657080,0.000000,1.567730
LINE29,0.045094,-0.841253,0.045094,3.347537,0.045094,1.253142
LINE30,0.185388,-0.841252,0.185388,3.347539,0.185388,1.253143
LINE31,3.404603,-0.841096,3.404603,3.347694,3.404603,1.253299
LINE32,0.000000,-1.443079,0.000000,3.606618,0.000000,1.572610
LINE33,0.045094,-0.841253,0.045094,3.347537,0.045094,1.253142
LINE34,0.185388,-0.841252,0.185388,3.347539,0.185388,1.253143
LINE35,0.141564,-0.841223,0.141564,3.347567,0.141564,1.253172
LINE36,3.263039,-0.841091,3.263039,3.347699,3.263039,1.253304
LINE37,0.000000,-1.430580,0.000000,3.675260,0.000000,1.570854
LINE38,0.185388,-0.841252,0.185388,3.347539,0.185388,1.253143
LINE39,0.070156,-0.841223,0.070156,3.347567,0.070156,1.253172
LINE40,0.071409,-0.841223,0.071409,3.347567,0.071409,1.253172
LINE41,3.263039,-0.841091,3.263039,3.347699,3.263039,1.253304
LINE42,0.000000,-0.475459,0.000000,0.281909,0.000000,-1.549579
LINE43,0.000000,4.099454,0.000000,3.361639,0.000000,1.566561
LINE44,0.185388,-0.841252,0.185388,3.347539,0.185388,1.253143
LINE45,0.070156,-0.841223,0.070156,3.347567,0.070156,1.253172
LINE46,0.071409,-0.841223,0.071409,3.347567,0.071409,1.253172
LINE47,3.263039,-0.841091,3.263039,3.347699,3.263039,1.253304
LINE48,0.000000,-0.694128,0.000000,0.488350,0.000000,4.710602
LINE49,0.000000,3.580308,0.000000,3.438411,0.000000,1.564138
LINE50,0.185388,-0.841252,0.185388,3.347539,0.185388,1.253143
LINE51,0.070156,-0.841223,0.070156,3.347567,0.070156,1.253172
LINE52,3.263039,-0.841091,3.263039,3.347699,3.263039,1.253304
LINE53,0.000000,2.882851,0.000000,1.692970,0.000000,-1.567958
LINE54,0.000000,-0.230480,0.000000,0.502335,0.000000,4.703490
LINE55,0.000000,3.116661,0.000000,3.644735,0.000000,1.567401
LINE56,0.185388,-0.841252,0.185388,3.347539,0.185388,1.253143
LINE57,0.070156,-0.841223,0.070156,3.347567,0.070156,1.253172
LINE58,3.263039,-0.841091,3.263039,3.347699,3.263039,1.253304
LINE59,0.000000,1.477204,0.000000,1.477204,0.000000,4.679391
LINE60,0.000000,-0.552231,0.000000,0.696815,0.000000,4.704826
LINE61,0.000000,3.116661,0.000000,3.438411,0.000000,1.566095
LINE62,0.185388,-0.841252,0.185388,3.347539,0.185388,1.253143
LINE63,0.070156,-0.841223,0.070156,3.347567,0.070156,1.253172
LINE64,3.086358,-0.841086,3.086358,3.347704,3.086358,1.253309
LINE65,0.176681,-0.841173,0.176681,3.347617,0.176681,1.253222
LINE66,0.000000,1.477204,0.000000,1.232225,0.000000,-1.566890
LINE67,0.000000,-0.694128,0.000000,0.554918,0.000000,4.656748
LINE68,0.000000,3.116661,0.000000,3.644735,0.000000,1.569515
LINE69,0.185388,-0.841252,0.185388,3.347539,0.185388,1.253143
LINE70,0.070156,-0.841223,0.070156,3.347567,0.070156,1.253172
LINE71,3.086358,-0.841086,3.086358,3.347704,3.086358,1.253309
LINE72,0.061400,-0.841174,0.061400,3.347617,0.061400,1.253222
LINE73,0.115281,-0.841173,0.115281,3.347617,0.115281,1.253222
LINE74,0.000000,3.213149,0.000000,1.857710,0.000000,4.693324
LINE75,0.000000,-0.618799,0.000000,0.529282,0.000000,4.678834
LINE76,0.000000,3.091666,0.000000,3.459685,0.000000,1.569735
LINE77,0.070156,-0.841223,0.070156,3.347567,0.070156,1.253172
LINE78,3.086358,-0.841086,3.086358,3.347704,3.086358,1.253309
LINE79,0.000000,3.213149,0.000000,1.857710,0.000000,4.678529
LINE80,0.000000,-0.630721,0.000000,0.563767,0.000000,4.682930
LINE81,0.000000,3.020802,0.000000,3.429007,0.000000,1.571179
LINE82,0.070156,-0.841223,0.070156,3.347567,0.070156,1.253172
LINE83,3.086358,-0.841086,3.086358,3.347704,3.086358,1.253309
LINE84,0.000000,3.511648,0.000000,2.584352,0.000000,-0.093593
LINE85,0.000000,-0.636222,0.000000,0.550513,0.000000,4.690622
LINE86,0.000000,3.116661,0.000000,3.464047,0.000000,1.572027
LINE87,3.086358,-0.841086,3.086358,3.347704,3.086358,1.253309
LINE88,0.000000,0.000000,0.000000,0.000000,0.000000,-0.093593
LINE89,0.000000,-0.642891,0.000000,0.536738,0.000000,4.680799
LINE90,0.000000,3.116661,0.000000,3.497167,0.000000,1.567545
LINE91,3.086358,-0.841086,3.086358,3.347704,3.086358,1.253309
LINE92,0.000000,-0.475459,0.000000,0.665575,0.000000,4.668210
LINE93,0.000000,2.331263,0.000000,3.361639,0.000000,1.570152
LINE94,3.086358,-0.841086,3.086358,3.347704,3.086358,1.253309
LINE95,0.000000,-0.694128,0.000000,1.340316,0.000000,-1.486330
LINE96,0.000000,2.653013,0.000000,1.545864,0.000000,1.594167
LINE97,3.086358,-0.841086,3.086358,3.347704,3.086358,1.253309
LINE98,0.000000,-1.015879,0.000000,0.233167,0.000000,4.709349
LINE99,0.000000,1.545864,0.000000,3.116661,0.000000,3.116661
LINE100,3.086358,-0.841086,3.086358,3.347704,3.086358,1.253309
LINE101,0.000000,3.678591,0.000000,3.672515,0.000000,1.149072
LINE102,0.000000,0.000000,0.000000,0.000000,0.000000,3.116661
LINE103,0.424843,-0.841145,0.424843,3.347645,0.424843,1.253250
LINE104,2.661515,-0.841077,2.661515,3.347713,2.661515,1.253318
LINE105,0.000000,3.893906,0.000000,3.554613,0.000000,1.270301
LINE106,0.424843,-0.841145,0.424843,3.347645,0.424843,1.253250
LINE107,2.661515,-0.841077,2.661515,3.347713,2.661515,1.253318
LINE108,0.000000,3.807168,0.000000,3.585853,0.000000,1.254960
LINE109,0.424843,-0.841145,0.424843,3.347645,0.424843,1.253250
LINE110,2.661515,-0.841077,2.661515,3.347713,2.661515,1.253318
LINE111,0.000000,3.758631,0.000000,3.504226,0.000000,1.203595
LINE112,0.424843,-0.841145,0.424843,3.347645,0.424843,1.253250
LINE113,2.661515,-0.841077,2.661515,3.347713,2.661515,1.253318
LINE114,0.000000,3.775483,0.000000,3.509531,0.000000,1.215272
LINE115,0.424843,-0.841145,0.424843,3.347645,0.424843,1.253250
LINE116,0.312074,-0.841128,0.312074,3.347662,0.312074,1.253267
LINE117,2.349441,-0.841070,2.349441,3.347720,2.349441,1.253325
LINE118,0.000000,3.755266,0.000000,3.499115,0.000000,1.236836
LINE119,0.424843,-0.841145,0.424843,3.347645,0.424843,1.253250
LINE120,0.000000,2.897992,0.000000,-0.087351,0.000000,1.578010
LINE121,0.312074,-0.841128,0.312074,3.347662,0.312074,1.253267
LINE122,2.349441,-0.841070,2.349441,3.347720,2.349441,1.253325
LINE123,0.000000,3.670875,0.000000,3.469712,0.000000,1.250453
LINE124,0.424843,-0.841145,0.424843,3.347645,0.424843,1.253250
LINE125,0.000000,2.931313,0.000000,-0.236025,0.000000,1.579543
LINE126,0.312074,-0.841128,0.312074,3.347662,0.312074,1.253267
LINE127,2.349441,-0.841070,2.349441,3.347720,2.349441,1.253325
LINE128,0.000000,3.696510,0.000000,3.430258,0.000000,1.209896
LINE129,0.424843,-0.841145,0.424843,3.347645,0.424843,1.253250
LINE130,0.000000,2.845714,0.000000,-0.190081,0.000000,1.606429
LINE131,0.063918,-0.841129,0.063918,3.347661,0.063918,1.253266
LINE132,0.248155,-0.841128,0.248155,3.347662,0.248155,1.253267
LINE133,2.349441,-0.841070,2.349441,3.347720,2.349441,1.253325
LINE134,0.000000,3.709497,0.000000,3.389465,0.000000,1.250149
LINE135,0.424843,-0.841145,0.424843,3.347645,0.424843,1.253250
LINE136,0.000000,3.033520,0.000000,-0.190081,0.000000,1.583074
LINE137,0.063918,-0.841129,0.063918,3.347661,0.063918,1.253266
LINE138,0.248155,-0.841128,0.248155,3.347662,0.248155,1.253267
LINE139,2.349441,-0.841070,2.349441,3.347720,2.349441,1.253325
LINE140,0.000000,3.696510,0.000000,3.331776,0.000000,1.240163
LINE141,0.424843,-0.841145,0.424843,3.347645,0.424843,1.253250
LINE142,0.000000,3.158303,0.000000,-0.383703,0.000000,1.580357
LINE143,0.063918,-0.841129,0.063918,3.347661,0.063918,1.253266
LINE144,0.248155,-0.841128,0.248155,3.347662,0.248155,1.253267
LINE145,2.349441,-0.841070,2.349441,3.347720,2.349441,1.253325
LINE146,0.000000,3.605851,0.000000,3.554613,0.000000,1.095127
LINE147,0.424843,-0.841145,0.424843,3.347645,0.424843,1.253250
LINE148,0.000000,3.116661,0.000000,-0.210280,0.000000,1.586682
LINE149,0.063918,-0.841129,0.063918,3.347661,0.063918,1.253266
LINE150,0.136611,-0.841128,0.136611,3.347662,0.136611,1.253267
LINE151,0.111544,-0.841128,0.111544,3.347662,0.111544,1.253267
LINE152,2.349441,-0.841070,2.349441,3.347720,2.349441,1.253325
LINE153,0.000000,3.893906,0.000000,2.911112,0.000000,1.651962
LINE154,0.424843,-0.841145,0.424843,3.347645,0.424843,1.253250
LINE155,0.000000,3.199802,0.000000,-0.405438,0.000000,1.568654
LINE156,0.063918,-0.841129,0.063918,3.347661,0.063918,1.253266
LINE157,0.136611,-0.841128,0.136611,3.347662,0.136611,1.253267
LINE158,0.111544,-0.841128,0.111544,3.347662,0.111544,1.253267
LINE159,2.349441,-0.841070,2.349441,3.347720,2.349441,1.253325
LINE160,0.000000,3.374760,0.000000,3.374760,0.000000,2.911112
LINE161,0.061408,-0.841145,0.061408,3.347645,0.061408,1.253250
LINE162,0.363436,-0.841145,0.363436,3.347645,0.363436,1.253250
LINE163,0.000000,3.327754,0.000000,-0.405438,0.000000,1.573119
LINE164,0.063918,-0.841129,0.063918,3.347661,0.063918,1.253266
LINE165,0.136611,-0.841128,0.136611,3.347662,0.136611,1.253267
LINE166,0.111544,-0.841128,0.111544,3.347662,0.111544,1.253267
LINE167,2.349441,-0.841070,2.349441,3.347720,2.349441,1.253325
LINE168,0.000000,4.481909,0.000000,0.000000,0.000000,-0.230480
LINE169,0.061408,-0.841145,0.061408,3.347645,0.061408,1.253250
LINE170,0.363436,-0.841145,0.363436,3.347645,0.363436,1.253250
LINE171,0.000000,3.199802,0.000000,-0.190081,0.000000,1.552481
LINE172,0.063918,-0.841129,0.063918,3.347661,0.063918,1.253266
LINE173,0.000000,-0.277131,0.000000,3.012977,0.000000,3.909299
LINE174,0.136611,-0.841128,0.136611,3.347662,0.136611,1.253267
LINE175,0.111544,-0.841128,0.111544,3.347662,0.111544,1.253267
LINE176,2.349441,-0.841070,2.349441,3.347720,2.349441,1.253325
LINE177,0.061408,-0.841145,0.061408,3.347645,0.061408,1.253250
LINE178,0.230594,-0.841145,0.230594,3.347645,0.230594,1.253250
LINE179,0.132842,-0.841144,0.132842,3.347646,0.132842,1.253251
LINE180,0.000000,3.361639,0.000000,-0.269911,0.000000,1.551589
LINE181,0.063918,-0.841129,0.063918,3.347661,0.063918,1.253266
LINE182,0.000000,-0.196091,0.000000,3.027388,0.000000,3.534330
LINE183,0.136611,-0.841128,0.136611,3.347662,0.136611,1.253267
LINE184,0.111544,-0.841128,0.111544,3.347662,0.111544,1.253267
LINE185,2.349441,-0.841070,2.349441,3.347720,2.349441,1.253325
LINE186,0.230594,-0.841145,0.230594,3.347645,0.230594,1.253250
LINE187,0.132842,-0.841144,0.132842,3.347646,0.132842,1.253251
LINE188,0.000000,3.116661,0.000000,-0.269911,0.000000,1.562144
LINE189,0.063918,-0.841129,0.063918,3.347661,0.063918,1.253266
LINE190,0.000000,3.722900,0.000000,3.203754,0.000000,1.512004
LINE191,0.000000,-0.318345,0.000000,3.088877,0.000000,3.348361
LINE192,0.136611,-0.841128,0.136611,3.347662,0.136611,1.253267
LINE193,0.111544,-0.841128,0.111544,3.347662,0.111544,1.253267
LINE194,2.349441,-0.841070,2.349441,3.347720,2.349441,1.253325
LINE195,0.230594,-0.841145,0.230594,3.347645,0.230594,1.253250
LINE196,0.066421,-0.841145,0.066421,3.347646,0.066421,1.253251
LINE197,0.066421,-0.841144,0.066421,3.347646,0.066421,1.253251
LINE198,0.000000,3.116661,0.000000,-0.024932,0.000000,1.576494
LINE199,0.063918,-0.841129,0.063918,3.347661,0.063918,1.253266
LINE200,0.000000,-0.865134,0.000000,0.000000,0.000000,-1.508391
LINE201,0.000000,-0.566635,0.000000,3.042991,0.000000,2.740106
LINE202,0.136611,-0.841128,0.136611,3.347662,0.136611,1.253267
LINE203,0.111544,-0.841128,0.111544,3.347662,0.111544,1.253267
LINE204,2.349441,-0.841070,2.349441,3.347720,2.349441,1.253325
LINE205,0.109031,-0.841145,0.109031,3.347645,0.109031,1.253250
LINE206,0.121563,-0.841145,0.121563,3.347645,0.121563,1.253250
LINE207,0.066421,-0.841145,0.066421,3.347646,0.066421,1.253251
LINE208,0.066421,-0.841144,0.066421,3.347646,0.066421,1.253251
LINE209,0.000000,2.653013,0.000000,1.545864,0.000000,1.546841
LINE210,0.063918,-0.841129,0.063918,3.347661,0.063918,1.253266
LINE211,0.000000,-0.401486,0.000000,3.042991,0.000000,1.731577
LINE212,0.136611,-0.841128,0.136611,3.347662,0.136611,1.253267
LINE213,0.111544,-0.841128,0.111544,3.347662,0.111544,1.253267
LINE214,2.349441,-0.841070,2.349441,3.347720,2.349441,1.253325
LINE215,0.109031,-0.841145,0.109031,3.347645,0.109031,1.253250
LINE216,0.121563,-0.841145,0.121563,3.347645,0.121563,1.253250
LINE217,0.066421,-0.841144,0.066421,3.347646,0.066421,1.253251
LINE218,0.000000,3.116661,0.000000,1.545864,0.000000,-0.024932
LINE219,0.063918,-0.841129,0.063918,3.347661,0.063918,1.253266
LINE220,0.000000,-0.236338,0.000000,2.905255,0.000000,4.226206
LINE221,0.136611,-0.841128,0.136611,3.347662,0.136611,1.253267
LINE222,0.111544,-0.841128,0.111544,3.347662,0.111544,1.253267
LINE223,2.349441,-0.841070,2.349441,3.347720,2.349441,1.253325
LINE224,0.109031,-0.841145,0.109031,3.347645,0.109031,1.253250
LINE225,0.121563,-0.841145,0.121563,3.347645,0.121563,1.253250
LINE226,0.066421,-0.841144,0.066421,3.347646,0.066421,1.253251
LINE227,0.063918,-0.841129,0.063918,3.347661,0.063918,1.253266
LINE228,0.000000,-0.156508,0.000000,2.740106,0.000000,4.516344
LINE229,0.136611,-0.841128,0.136611,3.347662,0.136611,1.253267
LINE230,0.111544,-0.841128,0.111544,3.347662,0.111544,1.253267
LINE231,2.349441,-0.841070,2.349441,3.347720,2.349441,1.253325
LINE232,0.121563,-0.841145,0.121563,3.347645,0.121563,1.253250
LINE233,0.000000,0.000000,0.000000,0.000000,0.000000,1.458248
LINE234,0.066421,-0.841144,0.066421,3.347646,0.066421,1.253251
LINE235,0.063918,-0.841129,0.063918,3.347661,0.063918,1.253266
LINE236,0.000000,-0.865134,0.000000,2.802525,0.000000,-1.284312
LINE237,0.136611,-0.841128,0.136611,3.347662,0.136611,1.253267
LINE238,0.111544,-0.841128,0.111544,3.347662,0.111544,1.253267
LINE239,2.349441,-0.841070,2.349441,3.347720,2.349441,1.253325
LINE240,0.121563,-0.841145,0.121563,3.347645,0.121563,1.253250
LINE241,0.066421,-0.841144,0.066421,3.347646,0.066421,1.253251
LINE242,0.063918,-0.841129,0.063918,3.347661,0.063918,1.253266
LINE243,0.000000,-0.401486,0.000000,2.811414,0.000000,-1.456636
LINE244,0.136611,-0.841128,0.136611,3.347662,0.136611,1.253267
LINE245,0.111544,-0.841128,0.111544,3.347662,0.111544,1.253267
LINE246,2.349441,-0.841070,2.349441,3.347720,2.349441,1.253325
LINE247,0.060155,-0.841145,0.060155,3.347645,0.060155,1.253250
LINE248,0.061408,-0.841145,0.061408,3.347645,0.061408,1.253250
LINE249,0.066421,-0.841144,0.066421,3.347646,0.066421,1.253251
LINE250,0.063918,-0.841129,0.063918,3.347661,0.063918,1.253266
LINE251,0.000000,0.000000,0.000000,3.061857,0.000000,-1.523432
LINE252,0.136611,-0.841128,0.136611,3.347662,0.136611,1.253267
LINE253,0.111544,-0.841128,0.111544,3.347662,0.111544,1.253267
LINE254,0.063927,-0.841106,0.063927,3.347684,0.063927,1.253289
LINE255,2.285515,-0.841069,2.285515,3.347721,2.285515,1.253326
LINE256,0.066421,-0.841144,0.066421,3.347646,0.066421,1.253251
LINE257,0.063918,-0.841129,0.063918,3.347661,0.063918,1.253266
LINE258,0.000000,4.310903,0.000000,3.203754,0.000000,-0.401486
LINE259,0.136611,-0.841128,0.136611,3.347662,0.136611,1.253267
LINE260,0.111544,-0.841128,0.111544,3.347662,0.111544,1.253267
LINE261,0.063927,-0.841106,0.063927,3.347684,0.063927,1.253289
LINE262,2.285515,-0.841069,2.285515,3.347721,2.285515,1.253326
LINE263,0.066421,-0.841144,0.066421,3.347646,0.066421,1.253251
LINE264,0.063918,-0.841129,0.063918,3.347661,0.063918,1.253266
LINE265,0.000000,3.383607,0.000000,1.954708,0.000000,-1.080935
LINE266,0.136611,-0.841128,0.136611,3.347662,0.136611,1.253267
LINE267,0.055146,-0.841128,0.055146,3.347662,0.055146,1.253267
LINE268,0.056399,-0.841128,0.056399,3.347662,0.056399,1.253267
LINE269,0.063927,-0.841106,0.063927,3.347684,0.063927,1.253289
LINE270,0.062674,-0.841103,0.062674,3.347687,0.062674,1.253292
LINE271,2.222840,-0.841068,2.222840,3.347722,2.222840,1.253327
LINE272,0.063918,-0.841129,0.063918,3.347661,0.063918,1.253266
LINE273,0.000000,1.954708,0.000000,0.000000,0.000000,-0.401486
LINE274,0.136611,-0.841128,0.136611,3.347662,0.136611,1.253267
LINE275,0.055146,-0.841128,0.055146,3.347662,0.055146,1.253267
LINE276,0.056399,-0.841128,0.056399,3.347662,0.056399,1.253267
LINE277,0.063927,-0.841106,0.063927,3.347684,0.063927,1.253289
LINE278,0.062674,-0.841103,0.062674,3.347687,0.062674,1.253292
LINE279,2.222840,-0.841068,2.222840,3.347722,2.222840,1.253327
LINE280,0.063918,-0.841129,0.063918,3.347661,0.063918,1.253266
LINE281,0.000000,1.169310,0.000000,0.062161,0.000000,4.075857
LINE282,0.136611,-0.841128,0.136611,3.347662,0.136611,1.253267
LINE283,0.056399,-0.841128,0.056399,3.347662,0.056399,1.253267
LINE284,0.063927,-0.841106,0.063927,3.347684,0.063927,1.253289
LINE285,0.062674,-0.841103,0.062674,3.347687,0.062674,1.253292
LINE286,0.763491,-0.841070,0.763491,3.347721,0.763491,1.253325
LINE287,1.459349,-0.841067,1.459349,3.347723,1.459349,1.253328
LINE288,0.063918,-0.841129,0.063918,3.347661,0.063918,1.253266
LINE289,0.000000,1.169310,0.000000,0.000000,0.000000,2.740106
LINE290,0.067679,-0.841128,0.067679,3.347662,0.067679,1.253267
LINE291,0.068932,-0.841128,0.068932,3.347662,0.068932,1.253267
LINE292,0.056399,-0.841128,0.056399,3.347662,0.056399,1.253267
LINE293,0.063927,-0.841106,0.063927,3.347684,0.063927,1.253289
LINE294,0.062674,-0.841103,0.062674,3.347687,0.062674,1.253292
LINE295,0.763491,-0.841070,0.763491,3.347721,0.763491,1.253325
LINE296,1.459349,-0.841067,1.459349,3.347723,1.459349,1.253328
LINE297,0.067679,-0.841128,0.067679,3.347662,0.067679,1.253267
LINE298,0.068932,-0.841128,0.068932,3.347662,0.068932,1.253267
LINE299,0.056399,-0.841128,0.056399,3.347662,0.056399,1.253267
LINE300,0.063927,-0.841106,0.063927,3.347684,0.063927,1.253289
LINE301,0.062674,-0.841103,0.062674,3.347687,0.062674,1.253292
LINE302,0.763491,-0.841070,0.763491,3.347721,0.763491,1.253325
LINE303,1.459349,-0.841067,1.459349,3.347723,1.459349,1.253328
LINE304,0.067679,-0.841128,0.067679,3.347662,0.067679,1.253267
LINE305,0.068932,-0.841128,0.068932,3.347662,0.068932,1.253267
LINE306,0.056399,-0.841128,0.056399,3.347662,0.056399,1.253267
LINE307,0.063927,-0.841106,0.063927,3.347684,0.063927,1.253289
LINE308,0.062674,-0.841103,0.062674,3.347687,0.062674,1.253292
LINE309,0.763491,-0.841070,0.763491,3.347721,0.763491,1.253325
LINE310,1.459349,-0.841067,1.459349,3.347723,1.459349,1.253328
LINE311,0.067679,-0.841128,0.067679,3.347662,0.067679,1.253267
LINE312,0.068932,-0.841128,0.068932,3.347662,0.068932,1.253267
LINE313,0.056399,-0.841128,0.056399,3.347662,0.056399,1.253267
LINE314,0.063927,-0.841106,0.063927,3.347684,0.063927,1.253289
LINE315,0.062674,-0.841103,0.062674,3.347687,0.062674,1.253292
LINE316,0.077720,-0.841095,0.077720,3.347696,0.077720,1.253300
LINE317,0.685771,-0.841067,0.685771,3.347723,0.685771,1.253328
LINE318,1.459349,-0.841067,1.459349,3.347723,1.459349,1.253328
LINE319,0.067679,-0.841128,0.067679,3.347662,0.067679,1.253267
LINE320,0.068932,-0.841128,0.068932,3.347662,0.068932,1.253267
LINE321,0.063927,-0.841106,0.063927,3.347684,0.063927,1.253289
LINE322,0.062674,-0.841103,0.062674,3.347687,0.062674,1.253292
LINE323,0.077720,-0.841095,0.077720,3.347696,0.077720,1.253300
LINE324,0.685771,-0.841067,0.685771,3.347723,0.685771,1.253328
LINE325,1.459349,-0.841067,1.459349,3.347723,1.459349,1.253328
LINE326,0.068932,-0.841128,0.068932,3.347662,0.068932,1.253267
LINE327,0.063927,-0.841106,0.063927,3.347684,0.063927,1.253289
LINE328,0.062674,-0.841103,0.062674,3.347687,0.062674,1.253292
LINE329,0.077720,-0.841095,0.077720,3.347696,0.077720,1.253300
LINE330,0.067693,-0.841089,0.067693,3.347701,0.067693,1.253306
LINE331,0.618079,-0.841064,0.618079,3.347726,0.618079,1.253331
LINE332,1.459349,-0.841067,1.459349,3.347723,1.459349,1.253328
LINE333,0.063927,-0.841106,0.063927,3.347684,0.063927,1.253289
LINE334,0.062674,-0.841103,0.062674,3.347687,0.062674,1.253292
LINE335,0.077720,-0.841095,0.077720,3.347696,0.077720,1.253300
LINE336,0.067693,-0.841089,0.067693,3.347701,0.067693,1.253306
LINE337,0.067694,-0.841086,0.067694,3.347704,0.067694,1.253309
LINE338,0.550385,-0.841062,0.550385,3.347729,0.550385,1.253333
LINE339,1.459349,-0.841067,1.459349,3.347723,1.459349,1.253328
LINE340,0.063927,-0.841106,0.063927,3.347684,0.063927,1.253289
LINE341,0.062674,-0.841103,0.062674,3.347687,0.062674,1.253292
LINE342,0.042620,-0.841095,0.042620,3.347695,0.042620,1.253300
LINE343,0.035099,-0.841095,0.035099,3.347696,0.035099,1.253300
LINE344,0.067694,-0.841086,0.067694,3.347704,0.067694,1.253309
LINE345,0.550385,-0.841062,0.550385,3.347729,0.550385,1.253333
LINE346,1.459349,-0.841067,1.459349,3.347723,1.459349,1.253328
LINE347,0.063927,-0.841106,0.063927,3.347684,0.063927,1.253289
LINE348,0.042620,-0.841095,0.042620,3.347695,0.042620,1.253300
LINE349,0.035099,-0.841095,0.035099,3.347696,0.035099,1.253300
LINE350,0.067694,-0.841086,0.067694,3.347704,0.067694,1.253309
LINE351,0.550385,-0.841062,0.550385,3.347729,0.550385,1.253333
LINE352,1.459349,-0.841067,1.459349,3.347723,1.459349,1.253328
LINE353,0.063927,-0.841106,0.063927,3.347684,0.063927,1.253289
LINE354,0.035099,-0.841095,0.035099,3.347696,0.035099,1.253300
LINE355,0.067694,-0.841086,0.067694,3.347704,0.067694,1.253309
LINE356,0.550385,-0.841062,0.550385,3.347729,0.550385,1.253333
LINE357,1.459349,-0.841067,1.459349,3.347723,1.459349,1.253328
LINE358,0.063927,-0.841106,0.063927,3.347684,0.063927,1.253289
LINE359,0.035099,-0.841095,0.035099,3.347696,0.035099,1.253300
LINE360,0.067694,-0.841086,0.067694,3.347704,0.067694,1.253309
LINE361,0.550385,-0.841062,0.550385,3.347729,0.550385,1.253333
LINE362,1.459349,-0.841067,1.459349,3.347723,1.459349,1.253328
LINE363,0.063927,-0.841106,0.063927,3.347684,0.063927,1.253289
LINE364,0.035099,-0.841095,0.035099,3.347696,0.035099,1.253300
LINE365,0.067694,-0.841086,0.067694,3.347704,0.067694,1.253309
LINE366,0.550385,-0.841062,0.550385,3.347729,0.550385,1.253333
LINE367,1.459349,-0.841067,1.459349,3.347723,1.459349,1.253328
LINE368,0.063927,-0.841106,0.063927,3.347684,0.063927,1.253289
LINE369,0.035099,-0.841095,0.035099,3.347696,0.035099,1.253300
LINE370,0.067694,-0.841086,0.067694,3.347704,0.067694,1.253309
LINE371,0.550385,-0.841062,0.550385,3.347729,0.550385,1.253333
LINE372,1.459349,-0.841067,1.459349,3.347723,1.459349,1.253328
LINE373,0.063927,-0.841106,0.063927,3.347684,0.063927,1.253289
LINE374,0.035099,-0.841095,0.035099,3.347696,0.035099,1.253300
LINE375,0.067694,-0.841086,0.067694,3.347704,0.067694,1.253309
LINE376,0.550385,-0.841062,0.550385,3.347729,0.550385,1.253333
LINE377,1.391658,-0.841066,1.391658,3.347724,1.391658,1.253329
LINE378,0.067691,-0.841095,0.067691,3.347695,0.067691,1.253300
LINE379,0.063927,-0.841106,0.063927,3.347684,0.063927,1.253289
LINE380,0.035099,-0.841095,0.035099,3.347696,0.035099,1.253300
LINE381,0.067694,-0.841086,0.067694,3.347704,0.067694,1.253309
LINE382,0.550385,-0.841062,0.550385,3.347729,0.550385,1.253333
LINE383,1.391658,-0.841066,1.391658,3.347724,1.391658,1.253329
LINE384,0.067691,-0.841095,0.067691,3.347695,0.067691,1.253300
LINE385,0.000000,0.817140,0.000000,-0.366743,0.000000,1.590726
LINE386,0.063927,-0.841106,0.063927,3.347684,0.063927,1.253289
LINE387,0.035099,-0.841095,0.035099,3.347696,0.035099,1.253300
LINE388,0.067694,-0.841086,0.067694,3.347704,0.067694,1.253309
LINE389,0.550385,-0.841062,0.550385,3.347729,0.550385,1.253333
LINE390,1.391658,-0.841066,1.391658,3.347724,1.391658,1.253329
LINE391,0.067691,-0.841095,0.067691,3.347695,0.067691,1.253300
LINE392,0.000000,0.773356,0.000000,-0.494518,0.000000,1.590838
LINE393,0.067694,-0.841086,0.067694,3.347704,0.067694,1.253309
LINE394,0.550385,-0.841062,0.550385,3.347729,0.550385,1.253333
LINE395,0.141654,-0.841091,0.141654,3.347699,0.141654,1.253304
LINE396,1.250004,-0.841063,1.250004,3.347727,1.250004,1.253332
LINE397,0.067691,-0.841095,0.067691,3.347695,0.067691,1.253300
LINE398,0.000000,0.800772,0.000000,-0.320265,0.000000,1.590323
LINE399,0.067694,-0.841086,0.067694,3.347704,0.067694,1.253309
LINE400,0.550385,-0.841062,0.550385,3.347729,0.550385,1.253333
LINE401,0.141654,-0.841091,0.141654,3.347699,0.141654,1.253304
LINE402,1.250004,-0.841063,1.250004,3.347727,1.250004,1.253332
LINE403,0.067691,-0.841095,0.067691,3.347695,0.067691,1.253300
LINE404,0.000000,0.710112,0.000000,-0.860684,0.000000,1.581746
LINE405,0.067694,-0.841086,0.067694,3.347704,0.067694,1.253309
LINE406,0.550385,-0.841062,0.550385,3.347729,0.550385,1.253333
LINE407,0.141654,-0.841091,0.141654,3.347699,0.141654,1.253304
LINE408,1.250004,-0.841063,1.250004,3.347727,1.250004,1.253332
LINE409,0.000000,2.414311,0.000000,-1.004914,0.000000,1.703676
LINE410,0.067691,-0.841095,0.067691,3.347695,0.067691,1.253300
LINE411,0.000000,1.115004,0.000000,0.388362,0.000000,1.605618
LINE412,0.550385,-0.841062,0.550385,3.347729,0.550385,1.253333
LINE413,0.141654,-0.841091,0.141654,3.347699,0.141654,1.253304
LINE414,1.250004,-0.841063,1.250004,3.347727,1.250004,1.253332
LINE415,0.000000,2.422047,0.000000,-0.933606,0.000000,1.745611
LINE416,0.067691,-0.841095,0.067691,3.347695,0.067691,1.253300
LINE417,0.000000,0.568215,0.000000,4.637103,0.000000,1.582037
LINE418,0.550385,-0.841062,0.550385,3.347729,0.550385,1.253333
LINE419,0.141654,-0.841091,0.141654,3.347699,0.141654,1.253304
LINE420,1.250004,-0.841063,1.250004,3.347727,1.250004,1.253332
LINE421,0.000000,2.391097,0.000000,-1.420505,0.000000,1.669806
LINE422,0.067691,-0.841095,0.067691,3.347695,0.067691,1.253300
LINE423,0.000000,0.234417,0.000000,4.294079,0.000000,1.608795
LINE424,0.550385,-0.841062,0.550385,3.347729,0.550385,1.253333
LINE425,0.000000,0.000000,0.000000,-0.559030,0.000000,3.046210
LINE426,0.141654,-0.841091,0.141654,3.347699,0.141654,1.253304
LINE427,1.250004,-0.841063,1.250004,3.347727,1.250004,1.253332
LINE428,0.000000,2.332342,0.000000,-1.229047,0.000000,1.753976
LINE429,0.067691,-0.841095,0.067691,3.347695,0.067691,1.253300
LINE430,0.000000,0.148191,0.000000,4.315352,0.000000,1.607422
LINE431,0.550385,-0.841062,0.550385,3.347729,0.550385,1.253333
LINE432,0.000000,0.000000,0.000000,0.000000,0.000000,-0.095383
LINE433,0.141654,-0.841091,0.141654,3.347699,0.141654,1.253304
LINE434,1.250004,-0.841063,1.250004,3.347727,1.250004,1.253332
LINE435,0.000000,2.367900,0.000000,-1.219657,0.000000,2.993385
LINE436,0.067691,-0.841095,0.067691,3.347695,0.067691,1.253300
LINE437,0.000000,0.283485,0.000000,4.049100,0.000000,1.621287
LINE438,0.550385,-0.841062,0.550385,3.347729,0.550385,1.253333
LINE439,0.000000,0.000000,0.000000,0.000000,0.000000,3.046210
LINE440,0.141654,-0.841091,0.141654,3.347699,0.141654,1.253304
LINE441,1.250004,-0.841063,1.250004,3.347727,1.250004,1.253332
LINE442,0.000000,2.274555,0.000000,-1.090208,0.000000,2.149178
LINE443,0.067691,-0.841095,0.067691,3.347695,0.067691,1.253300
LINE444,0.000000,0.246464,0.000000,3.799122,0.000000,1.607932
LINE445,0.550385,-0.841062,0.550385,3.347729,0.550385,1.253333
LINE446,0.000000,0.000000,0.000000,4.617006,0.000000,3.046210
LINE447,0.141654,-0.841091,0.141654,3.347699,0.141654,1.253304
LINE448,1.250004,-0.841063,1.250004,3.347727,1.250004,1.253332
LINE449,0.000000,2.141418,0.000000,-1.090208,0.000000,2.249834
LINE450,0.067691,-0.841095,0.067691,3.347695,0.067691,1.253300
LINE451,0.000000,0.483313,0.000000,3.761045,0.000000,1.634155
LINE452,0.550385,-0.841062,0.550385,3.347729,0.550385,1.253333
LINE453,0.000000,0.000000,0.000000,3.831608,0.000000,3.046210
LINE454,0.141654,-0.841091,0.141654,3.347699,0.141654,1.253304
LINE455,1.250004,-0.841063,1.250004,3.347727,1.250004,1.253332
LINE456,0.000000,1.854996,0.000000,-1.010378,0.000000,2.993385
LINE457,0.067691,-0.841095,0.067691,3.347695,0.067691,1.253300
LINE458,0.000000,0.568215,0.000000,3.851705,0.000000,1.634585
LINE459,0.490208,-0.841061,0.490208,3.347730,0.490208,1.253335
LINE460,0.000000,0.000000,0.000000,0.000000,0.000000,3.046210
LINE461,0.060176,-0.841071,0.060176,3.347719,0.060176,1.253324
LINE462,0.141654,-0.841091,0.141654,3.347699,0.141654,1.253304
LINE463,1.250004,-0.841063,1.250004,3.347727,1.250004,1.253332
LINE464,0.000000,1.886236,0.000000,-0.272563,0.000000,4.608545
LINE465,0.000000,0.483313,0.000000,4.637103,0.000000,1.648732
LINE466,0.490208,-0.841061,0.490208,3.347730,0.490208,1.253335
LINE467,0.000000,0.000000,0.000000,3.509857,0.000000,3.046210
LINE468,0.000000,0.000000,0.000000,0.000000,0.000000,3.046210
LINE469,0.060176,-0.841071,0.060176,3.347719,0.060176,1.253324
LINE470,0.141654,-0.841091,0.141654,3.347699,0.141654,1.253304
LINE471,1.250004,-0.841063,1.250004,3.347727,1.250004,1.253332
LINE472,0.000000,2.207987,0.000000,-0.313357,0.000000,1.630829
LINE473,0.000000,0.421137,0.000000,4.560331,0.000000,1.667246
LINE474,0.490208,-0.841061,0.490208,3.347730,0.490208,1.253335
LINE475,0.000000,1.475413,0.000000,0.000000,0.000000,4.706730
LINE476,0.060176,-0.841071,0.060176,3.347719,0.060176,1.253324
LINE477,0.141654,-0.841091,0.141654,3.347699,0.141654,1.253304
LINE478,1.250004,-0.841063,1.250004,3.347727,1.250004,1.253332
LINE479,0.000000,1.886236,0.000000,-0.148208,0.000000,1.687494
LINE480,0.000000,1.495510,0.000000,3.529954,0.000000,1.651818
LINE481,0.369853,-0.841059,0.369853,3.347731,0.369853,1.253336
LINE482,0.000000,4.617006,0.000000,0.000000,0.000000,3.046210
LINE483,0.120356,-0.841065,0.120356,3.347725,0.120356,1.253330
LINE484,0.060176,-0.841071,0.060176,3.347719,0.060176,1.253324
LINE485,0.141654,-0.841091,0.141654,3.347699,0.141654,1.253304
LINE486,1.250004,-0.841063,1.250004,3.347727,1.250004,1.253332
LINE487,0.000000,2.207987,0.000000,-0.102785,0.000000,1.720684
LINE488,0.000000,1.495510,0.000000,0.000000,0.000000,1.590802
LINE489,0.369853,-0.841059,0.369853,3.347731,0.369853,1.253336
LINE490,0.000000,4.617006,0.000000,3.046210,0.000000,3.046210
LINE491,0.053909,-0.841065,0.053909,3.347725,0.053909,1.253330
LINE492,0.066446,-0.841065,0.066446,3.347725,0.066446,1.253330
LINE493,0.060176,-0.841071,0.060176,3.347719,0.060176,1.253324
LINE494,0.141654,-0.841091,0.141654,3.347699,0.141654,1.253304
LINE495,1.250004,-0.841063,1.250004,3.347727,1.250004,1.253332
LINE496,0.000000,2.149231,0.000000,-0.183907,0.000000,1.736592
LINE497,0.000000,3.529954,0.000000,3.529954,0.000000,1.576994
LINE498,0.369853,-0.841059,0.369853,3.347731,0.369853,1.253336
LINE499,0.000000,3.509857,0.000000,0.000000,0.000000,-0.095383
LINE500,0.053909,-0.841065,0.053909,3.347725,0.053909,1.253330
LINE501,0.066446,-0.841065,0.066446,3.347725,0.066446,1.253330
LINE502,0.060176,-0.841071,0.060176,3.347719,0.060176,1.253324
LINE503,0.141654,-0.841091,0.141654,3.347699,0.141654,1.253304
LINE504,1.250004,-0.841063,1.250004,3.347727,1.250004,1.253332
LINE505,0.000000,2.260570,0.000000,-0.203706,0.000000,1.892952
LINE506,0.000000,0.000000,0.000000,0.000000,0.000000,-0.075286
LINE507,0.369853,-0.841059,0.369853,3.347731,0.369853,1.253336
LINE508,0.000000,0.000000,0.000000,0.000000,0.000000,-0.095383
LINE509,0.053909,-0.841065,0.053909,3.347725,0.053909,1.253330
LINE510,0.060176,-0.841071,0.060176,3.347719,0.060176,1.253324
LINE511,0.141654,-0.841091,0.141654,3.347699,0.141654,1.253304
LINE512,0.066443,-0.841081,0.066443,3.347709,0.066443,1.253314
LINE513,1.183561,-0.841062,1.183561,3.347728,1.183561,1.253333
LINE514,0.000000,2.382659,0.000000,-0.290105,0.000000,2.993385
LINE515,0.244480,-0.841058,0.244480,3.347732,0.244480,1.253337
LINE516,0.000000,0.000000,0.000000,0.000000,0.000000,-0.095383
LINE517,0.125373,-0.841061,0.125373,3.347730,0.125373,1.253334
LINE518,0.053909,-0.841065,0.053909,3.347725,0.053909,1.253330
LINE519,0.060176,-0.841071,0.060176,3.347719,0.060176,1.253324
LINE520,0.141654,-0.841091,0.141654,3.347699,0.141654,1.253304
LINE521,0.066443,-0.841081,0.066443,3.347709,0.066443,1.253314
LINE522,1.183561,-0.841062,1.183561,3.347728,1.183561,1.253333
LINE523,0.000000,2.298646,0.000000,-0.247877,0.000000,4.348823
LINE524,0.244480,-0.841058,0.244480,3.347732,0.244480,1.253337
LINE525,0.000000,0.000000,0.000000,0.000000,0.000000,-1.518340
LINE526,0.125373,-0.841061,0.125373,3.347730,0.125373,1.253334
LINE527,0.053909,-0.841065,0.053909,3.347725,0.053909,1.253330
LINE528,0.060176,-0.841071,0.060176,3.347719,0.060176,1.253324
LINE529,0.141654,-0.841091,0.141654,3.347699,0.141654,1.253304
LINE530,1.183561,-0.841062,1.183561,3.347728,1.183561,1.253333
LINE531,0.000000,2.529737,0.000000,-0.393187,0.000000,2.993385
LINE532,0.244480,-0.841058,0.244480,3.347732,0.244480,1.253337
LINE533,0.000000,0.000000,0.000000,2.260812,0.000000,3.046210
LINE534,0.125373,-0.841061,0.125373,3.347730,0.125373,1.253334
LINE535,0.053909,-0.841065,0.053909,3.347725,0.053909,1.253330
LINE536,0.060176,-0.841071,0.060176,3.347719,0.060176,1.253324
LINE537,0.071454,-0.841091,0.071454,3.347700,0.071454,1.253304
LINE538,0.070200,-0.841091,0.070200,3.347699,0.070200,1.253304
LINE539,1.183561,-0.841062,1.183561,3.347728,1.183561,1.253333
LINE540,0.000000,3.158533,0.000000,-0.469958,0.000000,2.993385
LINE541,0.244480,-0.841058,0.244480,3.347732,0.244480,1.253337
LINE542,0.000000,0.000000,0.000000,0.000000,0.000000,-0.095383
LINE543,0.125373,-0.841061,0.125373,3.347730,0.125373,1.253334
LINE544,0.053909,-0.841065,0.053909,3.347725,0.053909,1.253330
LINE545,0.060176,-0.841071,0.060176,3.347719,0.060176,1.253324
LINE546,0.071454,-0.841091,0.071454,3.347700,0.071454,1.253304
LINE547,1.183561,-0.841062,1.183561,3.347728,1.183561,1.253333
LINE548,0.000000,4.564181,0.000000,-0.469958,0.000000,2.993385
LINE549,0.244480,-0.841058,0.244480,3.347732,0.244480,1.253337
LINE550,0.000000,0.000000,0.000000,0.000000,0.000000,-0.095383
LINE551,0.068955,-0.841061,0.068955,3.347730,0.068955,1.253334
LINE552,0.056418,-0.841061,0.056418,3.347730,0.056418,1.253334
LINE553,0.053909,-0.841065,0.053909,3.347725,0.053909,1.253330
LINE554,0.060176,-0.841071,0.060176,3.347719,0.060176,1.253324
LINE555,0.071454,-0.841091,0.071454,3.347700,0.071454,1.253304
LINE556,1.183561,-0.841062,1.183561,3.347728,1.183561,1.253333
LINE557,0.000000,4.564181,0.000000,-0.933606,0.000000,2.993385
LINE558,0.244480,-0.841058,0.244480,3.347732,0.244480,1.253337
LINE559,0.000000,0.000000,0.000000,-0.095383,0.000000,3.046210
LINE560,0.068955,-0.841061,0.068955,3.347730,0.068955,1.253334
LINE561,0.056418,-0.841061,0.056418,3.347730,0.056418,1.253334
LINE562,0.053909,-0.841065,0.053909,3.347725,0.053909,1.253330
LINE563,0.060176,-0.841071,0.060176,3.347719,0.060176,1.253324
LINE564,1.183561,-0.841062,1.183561,3.347728,1.183561,1.253333
LINE565,0.000000,0.000000,0.000000,0.000000,0.000000,-0.148208
LINE566,0.125374,-0.841058,0.125374,3.347732,0.125374,1.253337
LINE567,0.000000,0.000000,0.000000,0.000000,0.000000,3.046210
LINE568,0.119106,-0.841058,0.119106,3.347732,0.119106,1.253337
LINE569,0.068955,-0.841061,0.068955,3.347730,0.068955,1.253334
LINE570,0.060176,-0.841071,0.060176,3.347719,0.060176,1.253324
LINE571,1.183561,-0.841062,1.183561,3.347728,1.183561,1.253333
LINE572,0.125374,-0.841058,0.125374,3.347732,0.125374,1.253337
LINE573,0.000000,1.475413,0.000000,0.000000,0.000000,0.000000
LINE574,0.119106,-0.841058,0.119106,3.347732,0.119106,1.253337
LINE575,0.068955,-0.841061,0.068955,3.347730,0.068955,1.253334
LINE576,0.060176,-0.841071,0.060176,3.347719,0.060176,1.253324
LINE577,1.183561,-0.841062,1.183561,3.347728,1.183561,1.253333
LINE578,0.125374,-0.841058,0.125374,3.347732,0.125374,1.253337
LINE579,0.000000,0.000000,0.000000,0.000000,0.000000,3.046210
LINE580,0.000000,1.768127,0.000000,0.734762,0.000000,4.535690
LINE581,0.119106,-0.841058,0.119106,3.347732,0.119106,1.253337
LINE582,0.068955,-0.841061,0.068955,3.347730,0.068955,1.253334
LINE583,0.060176,-0.841071,0.060176,3.347719,0.060176,1.253324
LINE584,0.057668,-0.841080,0.057668,3.347710,0.057668,1.253315
LINE585,1.125892,-0.841061,1.125892,3.347729,1.125892,1.253334
LINE586,0.125374,-0.841058,0.125374,3.347732,0.125374,1.253337
LINE587,0.000000,4.617006,0.000000,1.475413,0.000000,1.407889
LINE588,0.000000,1.773912,0.000000,0.729994,0.000000,4.511383
LINE589,0.119106,-0.841058,0.119106,3.347732,0.119106,1.253337
LINE590,0.068955,-0.841061,0.068955,3.347730,0.068955,1.253334
LINE591,0.060176,-0.841071,0.060176,3.347719,0.060176,1.253324
LINE592,0.057668,-0.841080,0.057668,3.347710,0.057668,1.253315
LINE593,1.125892,-0.841061,1.125892,3.347729,1.125892,1.253334
LINE594,0.060180,-0.841058,0.060180,3.347732,0.060180,1.253337
LINE595,0.065195,-0.841059,0.065195,3.347732,0.065195,1.253337
LINE596,0.000000,1.839392,0.000000,0.548118,0.000000,4.513085
LINE597,0.119106,-0.841058,0.119106,3.347732,0.119106,1.253337
LINE598,0.068955,-0.841061,0.068955,3.347730,0.068955,1.253334
LINE599,0.060176,-0.841071,0.060176,3.347719,0.060176,1.253324
LINE600,0.057668,-0.841080,0.057668,3.347710,0.057668,1.253315
LINE601,0.056415,-0.841078,0.056415,3.347712,0.056415,1.253317
LINE602,1.069477,-0.841060,1.069477,3.347730,1.069477,1.253335
LINE603,0.060180,-0.841058,0.060180,3.347732,0.060180,1.253337
LINE604,0.000000,1.475413,0.000000,0.000000,0.000000,-0.095383
LINE605,0.000000,1.475413,0.000000,0.000000,0.000000,-0.095383
LINE606,0.065195,-0.841059,0.065195,3.347732,0.065195,1.253337
LINE607,0.000000,0.000000,0.000000,0.388362,0.000000,3.066307
LINE608,0.000000,2.010369,0.000000,0.463216,0.000000,4.532058
LINE609,0.119106,-0.841058,0.119106,3.347732,0.119106,1.253337
LINE610,0.068955,-0.841061,0.068955,3.347730,0.068955,1.253334
LINE611,0.060176,-0.841071,0.060176,3.347719,0.060176,1.253324
LINE612,0.057668,-0.841080,0.057668,3.347710,0.057668,1.253315
LINE613,0.056415,-0.841078,0.056415,3.347712,0.056415,1.253317
LINE614,1.069477,-0.841060,1.069477,3.347730,1.069477,1.253335
LINE615,0.060180,-0.841058,0.060180,3.347732,0.060180,1.253337
LINE616,0.000000,0.000000,0.000000,0.000000,0.000000,-0.095383
LINE617,0.000000,1.475413,0.000000,0.000000,0.000000,-0.095383
LINE618,0.065195,-0.841059,0.065195,3.347732,0.065195,1.253337
LINE619,0.000000,2.150154,0.000000,0.690015,0.000000,4.490969
LINE620,0.119106,-0.841058,0.119106,3.347732,0.119106,1.253337
LINE621,0.060176,-0.841071,0.060176,3.347719,0.060176,1.253324
LINE622,0.057668,-0.841080,0.057668,3.347710,0.057668,1.253315
LINE623,0.067700,-0.841075,0.067700,3.347716,0.067700,1.253320
LINE624,1.001778,-0.841059,1.001778,3.347731,1.001778,1.253336
LINE625,0.060180,-0.841058,0.060180,3.347732,0.060180,1.253337
LINE626,0.000000,2.063416,0.000000,0.690015,0.000000,4.549391
LINE627,0.119106,-0.841058,0.119106,3.347732,0.119106,1.253337
LINE628,0.060176,-0.841071,0.060176,3.347719,0.060176,1.253324
LINE629,0.057668,-0.841080,0.057668,3.347710,0.057668,1.253315
LINE630,0.067700,-0.841075,0.067700,3.347716,0.067700,1.253320
LINE631,1.001778,-0.841059,1.001778,3.347731,1.001778,1.253336
LINE632,0.060180,-0.841058,0.060180,3.347732,0.060180,1.253337
LINE633,0.000000,2.063416,0.000000,0.690015,0.000000,4.507763
LINE634,0.119106,-0.841058,0.119106,3.347732,0.119106,1.253337
LINE635,0.057668,-0.841080,0.057668,3.347710,0.057668,1.253315
LINE636,0.067700,-0.841075,0.067700,3.347716,0.067700,1.253320
LINE637,1.001778,-0.841059,1.001778,3.347731,1.001778,1.253336
LINE638,0.060180,-0.841058,0.060180,3.347732,0.060180,1.253337
LINE639,0.000000,1.893638,0.000000,0.368265,0.000000,1.815759
LINE640,0.119106,-0.841058,0.119106,3.347732,0.119106,1.253337
LINE641,0.057668,-0.841080,0.057668,3.347710,0.057668,1.253315
LINE642,0.067700,-0.841075,0.067700,3.347716,0.067700,1.253320
LINE643,1.001778,-0.841059,1.001778,3.347731,1.001778,1.253336
LINE644,0.000000,2.063416,0.000000,0.492620,0.000000,1.621819
LINE645,0.119106,-0.841058,0.119106,3.347732,0.119106,1.253337
LINE646,0.057668,-0.841080,0.057668,3.347710,0.057668,1.253315
LINE647,0.067700,-0.841075,0.067700,3.347716,0.067700,1.253320
LINE648,1.001778,-0.841059,1.001778,3.347731,1.001778,1.253336
LINE649,0.000000,1.475413,0.000000,1.094907,0.000000,3.046210
LINE650,0.119106,-0.841058,0.119106,3.347732,0.119106,1.253337
LINE651,0.057668,-0.841080,0.057668,3.347710,0.057668,1.253315
LINE652,0.067700,-0.841075,0.067700,3.347716,0.067700,1.253320
LINE653,1.001778,-0.841059,1.001778,3.347731,1.001778,1.253336
LINE654,0.000000,2.063416,0.000000,0.887411,0.000000,4.688053
LINE655,0.065195,-0.841058,0.065195,3.347732,0.065195,1.253337
LINE656,0.053911,-0.841058,0.053911,3.347732,0.053911,1.253337
LINE657,0.057668,-0.841080,0.057668,3.347710,0.057668,1.253315
LINE658,0.067700,-0.841075,0.067700,3.347716,0.067700,1.253320
LINE659,1.001778,-0.841059,1.001778,3.347731,1.001778,1.253336
LINE660,0.000000,0.800673,0.000000,2.801231,0.000000,-1.482188
LINE661,0.065195,-0.841058,0.065195,3.347732,0.065195,1.253337
LINE662,0.053911,-0.841058,0.053911,3.347732,0.053911,1.253337
LINE663,0.057668,-0.841080,0.057668,3.347710,0.057668,1.253315
LINE664,0.067700,-0.841075,0.067700,3.347716,0.067700,1.253320
LINE665,1.001778,-0.841059,1.001778,3.347731,1.001778,1.253336
LINE666,0.000000,0.800673,0.000000,3.046210,0.000000,-1.534739
LINE667,0.065195,-0.841058,0.065195,3.347732,0.065195,1.253337
LINE668,0.053911,-0.841058,0.053911,3.347732,0.053911,1.253337
LINE669,0.057668,-0.841080,0.057668,3.347710,0.057668,1.253315
LINE670,0.067700,-0.841075,0.067700,3.347716,0.067700,1.253320
LINE671,0.175520,-0.841071,0.175520,3.347719,0.175520,1.253324
LINE672,0.826257,-0.841057,0.826257,3.347733,0.826257,1.253338
LINE673,0.000000,1.475413,0.000000,0.000000,0.000000,-1.322258
LINE674,0.065195,-0.841058,0.065195,3.347732,0.065195,1.253337
LINE675,0.053911,-0.841058,0.053911,3.347732,0.053911,1.253337
LINE676,0.057668,-0.841080,0.057668,3.347710,0.057668,1.253315
LINE677,0.067700,-0.841075,0.067700,3.347716,0.067700,1.253320
LINE678,0.175520,-0.841071,0.175520,3.347719,0.175520,1.253324
LINE679,0.826257,-0.841057,0.826257,3.347733,0.826257,1.253338
LINE680,0.000000,0.000000,0.000000,3.046210,0.000000,-0.095383
LINE681,0.065195,-0.841058,0.065195,3.347732,0.065195,1.253337
LINE682,0.057668,-0.841080,0.057668,3.347710,0.057668,1.253315
LINE683,0.067700,-0.841075,0.067700,3.347716,0.067700,1.253320
LINE684,0.175520,-0.841071,0.175520,3.347719,0.175520,1.253324
LINE685,0.826257,-0.841057,0.826257,3.347733,0.826257,1.253338
LINE686,0.057668,-0.841080,0.057668,3.347710,0.057668,1.253315
LINE687,0.067700,-0.841075,0.067700,3.347716,0.067700,1.253320
LINE688,0.175520,-0.841071,0.175520,3.347719,0.175520,1.253324
LINE689,0.140417,-0.841070,0.140417,3.347720,0.140417,1.253325
LINE690,0.685840,-0.841054,0.685840,3.347736,0.685840,1.253341
LINE691,0.057668,-0.841080,0.057668,3.347710,0.057668,1.253315
LINE692,0.175520,-0.841071,0.175520,3.347719,0.175520,1.253324
LINE693,0.077731,-0.841070,0.077731,3.347720,0.077731,1.253325
LINE694,0.062686,-0.841070,0.062686,3.347720,0.062686,1.253325
LINE695,0.036358,-0.841069,0.036358,3.347721,0.036358,1.253326
LINE696,0.649482,-0.841053,0.649482,3.347737,0.649482,1.253342
LINE697,0.057668,-0.841080,0.057668,3.347710,0.057668,1.253315
LINE698,0.175520,-0.841071,0.175520,3.347719,0.175520,1.253324
LINE699,0.077731,-0.841070,0.077731,3.347720,0.077731,1.253325
LINE700,0.062686,-0.841070,0.062686,3.347720,0.062686,1.253325
LINE701,0.036358,-0.841069,0.036358,3.347721,0.036358,1.253326
LINE702,0.649482,-0.841053,0.649482,3.347737,0.649482,1.253342
LINE703,0.057668,-0.841080,0.057668,3.347710,0.057668,1.253315
LINE704,0.175520,-0.841071,0.175520,3.347719,0.175520,1.253324
LINE705,0.077731,-0.841070,0.077731,3.347720,0.077731,1.253325
LINE706,0.649482,-0.841053,0.649482,3.347737,0.649482,1.253342
LINE707,0.000000,-0.166690,0.000000,3.291188,0.000000,4.689034
LINE708,0.057668,-0.841080,0.057668,3.347710,0.057668,1.253315
LINE709,0.175520,-0.841071,0.175520,3.347719,0.175520,1.253324
LINE710,0.077731,-0.841070,0.077731,3.347720,0.077731,1.253325
LINE711,0.521597,-0.841051,0.521597,3.347739,0.521597,1.253344
LINE712,0.127885,-0.841063,0.127885,3.347728,0.127885,1.253332
LINE713,0.000000,-0.012242,0.000000,3.145878,0.000000,4.711228
LINE714,0.057668,-0.841080,0.057668,3.347710,0.057668,1.253315
LINE715,0.175520,-0.841071,0.175520,3.347719,0.175520,1.253324
LINE716,0.077731,-0.841070,0.077731,3.347720,0.077731,1.253325
LINE717,0.521597,-0.841051,0.521597,3.347739,0.521597,1.253344
LINE718,0.127885,-0.841063,0.127885,3.347728,0.127885,1.253332
LINE719,0.000000,-0.095383,0.000000,3.689711,0.000000,4.708268
LINE720,0.057668,-0.841080,0.057668,3.347710,0.057668,1.253315
LINE721,0.175520,-0.841071,0.175520,3.347719,0.175520,1.253324
LINE722,0.077731,-0.841070,0.077731,3.347720,0.077731,1.253325
LINE723,0.387439,-0.841049,0.387439,3.347741,0.387439,1.253346
LINE724,0.134157,-0.841057,0.134157,3.347733,0.134157,1.253338
LINE725,0.127885,-0.841063,0.127885,3.347728,0.127885,1.253332
LINE726,0.000000,-0.195051,0.000000,3.367960,0.000000,-1.561703
LINE727,0.057668,-0.841080,0.057668,3.347710,0.057668,1.253315
LINE728,0.175520,-0.841071,0.175520,3.347719,0.175520,1.253324
LINE729,0.077731,-0.841070,0.077731,3.347720,0.077731,1.253325
LINE730,0.387439,-0.841049,0.387439,3.347741,0.387439,1.253346
LINE731,0.134157,-0.841057,0.134157,3.347733,0.134157,1.253338
LINE732,0.127885,-0.841063,0.127885,3.347728,0.127885,1.253332
LINE733,0.000000,-0.260532,0.000000,3.604809,0.000000,-1.570718
LINE734,0.057668,-0.841080,0.057668,3.347710,0.057668,1.253315
LINE735,0.175520,-0.841071,0.175520,3.347719,0.175520,1.253324
LINE736,0.077731,-0.841070,0.077731,3.347720,0.077731,1.253325
LINE737,0.387439,-0.841049,0.387439,3.347741,0.387439,1.253346
LINE738,0.134157,-0.841057,0.134157,3.347733,0.134157,1.253338
LINE739,0.127885,-0.841063,0.127885,3.347728,0.127885,1.253332
LINE740,0.000000,0.149596,0.000000,-1.387880,0.000000,4.705779
LINE741,0.057668,-0.841080,0.057668,3.347710,0.057668,1.253315
LINE742,0.175520,-0.841071,0.175520,3.347719,0.175520,1.253324
LINE743,0.077731,-0.841070,0.077731,3.347720,0.077731,1.253325
LINE744,0.387439,-0.841049,0.387439,3.347741,0.387439,1.253346
LINE745,0.066452,-0.841057,0.066452,3.347733,0.066452,1.253338
LINE746,0.067705,-0.841057,0.067705,3.347733,0.067705,1.253338
LINE747,0.127885,-0.841063,0.127885,3.347728,0.127885,1.253332
LINE748,0.000000,0.069766,0.000000,4.419611,0.000000,4.701536
LINE749,0.057668,-0.841080,0.057668,3.347710,0.057668,1.253315
LINE750,0.175520,-0.841071,0.175520,3.347719,0.175520,1.253324
LINE751,0.077731,-0.841070,0.077731,3.347720,0.077731,1.253325
LINE752,0.265818,-0.841048,0.265818,3.347743,0.265818,1.253348
LINE753,0.121622,-0.841052,0.121622,3.347738,0.121622,1.253343
LINE754,0.066452,-0.841057,0.066452,3.347733,0.066452,1.253338
LINE755,0.067705,-0.841057,0.067705,3.347733,0.067705,1.253338
LINE756,0.127885,-0.841063,0.127885,3.347728,0.127885,1.253332
LINE757,0.000000,0.149596,0.000000,-1.202532,0.000000,4.705132
LINE758,0.057668,-0.841080,0.057668,3.347710,0.057668,1.253315
LINE759,0.175520,-0.841071,0.175520,3.347719,0.175520,1.253324
LINE760,0.077731,-0.841070,0.077731,3.347720,0.077731,1.253325
LINE761,0.265818,-0.841048,0.265818,3.347743,0.265818,1.253348
LINE762,0.121622,-0.841052,0.121622,3.347738,0.121622,1.253343
LINE763,0.067705,-0.841057,0.067705,3.347733,0.067705,1.253338
LINE764,0.127885,-0.841063,0.127885,3.347728,0.127885,1.253332
LINE765,0.000000,-0.219738,0.000000,-0.683385,0.000000,4.710033
LINE766,0.057668,-0.841080,0.057668,3.347710,0.057668,1.253315
LINE767,0.175520,-0.841071,0.175520,3.347719,0.175520,1.253324
LINE768,0.077731,-0.841070,0.077731,3.347720,0.077731,1.253325
LINE769,0.265818,-0.841048,0.265818,3.347743,0.265818,1.253348
LINE770,0.056422,-0.841052,0.056422,3.347738,0.056422,1.253343
LINE771,0.065199,-0.841052,0.065199,3.347738,0.065199,1.253343
LINE772,0.067705,-0.841057,0.067705,3.347733,0.067705,1.253338
LINE773,0.127885,-0.841063,0.127885,3.347728,0.127885,1.253332
LINE774,0.000000,0.149596,0.000000,-0.095383,0.000000,4.686140
LINE775,0.057668,-0.841080,0.057668,3.347710,0.057668,1.253315
LINE776,0.175520,-0.841071,0.175520,3.347719,0.175520,1.253324
LINE777,0.077731,-0.841070,0.077731,3.347720,0.077731,1.253325
LINE778,0.265818,-0.841048,0.265818,3.347743,0.265818,1.253348
LINE779,0.056422,-0.841052,0.056422,3.347738,0.056422,1.253343
LINE780,0.065199,-0.841052,0.065199,3.347738,0.065199,1.253343
LINE781,0.067705,-0.841057,0.067705,3.347733,0.067705,1.253338
LINE782,0.127885,-0.841063,0.127885,3.347728,0.127885,1.253332
LINE783,0.000000,1.475413,0.000000,1.475413,0.000000,4.658019
LINE784,0.057668,-0.841080,0.057668,3.347710,0.057668,1.253315
LINE785,0.175520,-0.841071,0.175520,3.347719,0.175520,1.253324
LINE786,0.265818,-0.841048,0.265818,3.347743,0.265818,1.253348
LINE787,0.065199,-0.841052,0.065199,3.347738,0.065199,1.253343
LINE788,0.067705,-0.841057,0.067705,3.347733,0.067705,1.253338
LINE789,0.127885,-0.841063,0.127885,3.347728,0.127885,1.253332
LINE790,0.000000,2.582562,0.000000,2.801231,0.000000,4.702781
LINE791,0.131640,-0.841071,0.131640,3.347719,0.131640,1.253324
LINE792,0.043880,-0.841071,0.043880,3.347719,0.043880,1.253324
LINE793,0.265818,-0.841048,0.265818,3.347743,0.265818,1.253348
LINE794,0.065199,-0.841052,0.065199,3.347738,0.065199,1.253343
LINE795,0.067705,-0.841057,0.067705,3.347733,0.067705,1.253338
LINE796,0.127885,-0.841063,0.127885,3.347728,0.127885,1.253332
LINE797,0.000000,2.582562,0.000000,2.260812,0.000000,-1.520072
LINE798,0.131640,-0.841071,0.131640,3.347719,0.131640,1.253324
LINE799,0.043880,-0.841071,0.043880,3.347719,0.043880,1.253324
LINE800,0.144193,-0.841048,0.144193,3.347742,0.144193,1.253347
LINE801,0.121624,-0.841047,0.121624,3.347743,0.121624,1.253348
LINE802,0.065199,-0.841052,0.065199,3.347738,0.065199,1.253343
LINE803,0.067705,-0.841057,0.067705,3.347733,0.067705,1.253338
LINE804,0.127885,-0.841063,0.127885,3.347728,0.127885,1.253332
LINE805,0.000000,4.617006,0.000000,3.046210,0.000000,-0.095383
LINE806,0.131640,-0.841071,0.131640,3.347719,0.131640,1.253324
LINE807,0.043880,-0.841071,0.043880,3.347719,0.043880,1.253324
LINE808,0.144193,-0.841048,0.144193,3.347742,0.144193,1.253347
LINE809,0.121624,-0.841047,0.121624,3.347743,0.121624,1.253348
LINE810,0.000000,-0.095383,0.000000,-0.095383,0.000000,3.046210
LINE811,0.065199,-0.841052,0.065199,3.347738,0.065199,1.253343
LINE812,0.067705,-0.841057,0.067705,3.347733,0.067705,1.253338
LINE813,0.127885,-0.841063,0.127885,3.347728,0.127885,1.253332
LINE814,0.000000,0.368265,0.000000,2.801231,0.000000,-1.544950
LINE815,0.131640,-0.841071,0.131640,3.347719,0.131640,1.253324
LINE816,0.043880,-0.841071,0.043880,3.347719,0.043880,1.253324
LINE817,0.144193,-0.841048,0.144193,3.347742,0.144193,1.253347
LINE818,0.121624,-0.841047,0.121624,3.347743,0.121624,1.253348
LINE819,0.000000,4.617006,0.000000,0.000000,0.000000,0.000000
LINE820,0.065199,-0.841052,0.065199,3.347738,0.065199,1.253343
LINE821,0.127885,-0.841063,0.127885,3.347728,0.127885,1.253332
LINE822,0.000000,0.368265,0.000000,4.617006,0.000000,4.675715
LINE823,0.131640,-0.841071,0.131640,3.347719,0.131640,1.253324
LINE824,0.144193,-0.841048,0.144193,3.347742,0.144193,1.253347
LINE825,0.121624,-0.841047,0.121624,3.347743,0.121624,1.253348
LINE826,0.000000,0.000000,0.000000,0.000000,0.000000,-0.095383
LINE827,0.065199,-0.841052,0.065199,3.347738,0.065199,1.253343
LINE828,0.127885,-0.841063,0.127885,3.347728,0.127885,1.253332
LINE829,0.000000,4.617006,0.000000,0.000000,0.000000,3.046210
LINE830,0.131640,-0.841071,0.131640,3.347719,0.131640,1.253324
LINE831,0.144193,-0.841048,0.144193,3.347742,0.144193,1.253347
LINE832,0.121624,-0.841047,0.121624,3.347743,0.121624,1.253348
LINE833,0.000000,0.000000,0.000000,0.000000,0.000000,3.046210
LINE834,0.065199,-0.841052,0.065199,3.347738,0.065199,1.253343
LINE835,0.127885,-0.841063,0.127885,3.347728,0.127885,1.253332
LINE836,0.131640,-0.841071,0.131640,3.347719,0.131640,1.253324
LINE837,0.144193,-0.841048,0.144193,3.347742,0.144193,1.253347
LINE838,0.121624,-0.841047,0.121624,3.347743,0.121624,1.253348
LINE839,0.000000,4.617006,0.000000,4.617006,0.000000,-0.095383
LINE840,0.127885,-0.841063,0.127885,3.347728,0.127885,1.253332
LINE841,0.131640,-0.841071,0.131640,3.347719,0.131640,1.253324
LINE842,0.144193,-0.841048,0.144193,3.347742,0.144193,1.253347
LINE843,0.121624,-0.841047,0.121624,3.347743,0.121624,1.253348
LINE844,0.000000,3.211358,0.000000,-0.559030,0.000000,-1.543765
LINE845,0.000000,0.000000,0.000000,0.000000,0.000000,3.046210
LINE846,0.127885,-0.841063,0.127885,3.347728,0.127885,1.253332
LINE847,0.131640,-0.841071,0.131640,3.347719,0.131640,1.253324
LINE848,0.144193,-0.841048,0.144193,3.347742,0.144193,1.253347
LINE849,0.121624,-0.841047,0.121624,3.347743,0.121624,1.253348
LINE850,0.000000,3.291188,0.000000,-0.559030,0.000000,-1.484321
LINE851,0.000000,0.000000,0.000000,4.617006,0.000000,3.046210
LINE852,0.127885,-0.841063,0.127885,3.347728,0.127885,1.253332
LINE853,0.131640,-0.841071,0.131640,3.347719,0.131640,1.253324
LINE854,0.144193,-0.841048,0.144193,3.347742,0.144193,1.253347
LINE855,0.121624,-0.841047,0.121624,3.347743,0.121624,1.253348
LINE856,0.000000,3.129351,0.000000,0.368265,0.000000,-1.489598
LINE857,0.000000,0.000000,0.000000,3.046210,0.000000,3.046210
LINE858,0.127885,-0.841063,0.127885,3.347728,0.127885,1.253332
LINE859,0.066447,-0.841071,0.066447,3.347719,0.066447,1.253324
LINE860,0.065193,-0.841071,0.065193,3.347719,0.065193,1.253324
LINE861,0.144193,-0.841048,0.144193,3.347742,0.144193,1.253347
LINE862,0.121624,-0.841047,0.121624,3.347743,0.121624,1.253348
LINE863,0.000000,2.402709,0.000000,0.368265,0.000000,-1.486517
LINE864,0.000000,0.000000,0.000000,0.000000,0.000000,-0.095383
LINE865,0.127885,-0.841063,0.127885,3.347728,0.127885,1.253332
LINE866,0.144193,-0.841048,0.144193,3.347742,0.144193,1.253347
LINE867,0.121624,-0.841047,0.121624,3.347743,0.121624,1.253348
LINE868,0.000000,2.724459,0.000000,0.226368,0.000000,-1.452511
LINE869,0.000000,0.000000,0.000000,0.000000,0.000000,1.502141
LINE870,0.127885,-0.841063,0.127885,3.347728,0.127885,1.253332
LINE871,0.144193,-0.841048,0.144193,3.347742,0.144193,1.253347
LINE872,0.062693,-0.841047,0.062693,3.347743,0.062693,1.253348
LINE873,0.058931,-0.841047,0.058931,3.347743,0.058931,1.253348
LINE874,0.000000,2.260812,0.000000,0.149596,0.000000,-1.404157
LINE875,0.000000,1.475413,0.000000,0.000000,0.000000,3.046210
LINE876,0.127885,-0.841063,0.127885,3.347728,0.127885,1.253332
LINE877,0.144193,-0.841048,0.144193,3.347742,0.144193,1.253347
LINE878,0.062693,-0.841047,0.062693,3.347743,0.062693,1.253348
LINE879,0.058931,-0.841047,0.058931,3.347743,0.058931,1.253348
LINE880,0.000000,0.000000,0.000000,3.046210,0.000000,-0.095383
LINE881,0.000000,0.000000,0.000000,4.617006,0.000000,-0.095383
LINE882,0.127885,-0.841063,0.127885,3.347728,0.127885,1.253332
LINE883,0.144193,-0.841048,0.144193,3.347742,0.144193,1.253347
LINE884,0.062693,-0.841047,0.062693,3.347743,0.062693,1.253348
LINE885,0.058931,-0.841047,0.058931,3.347743,0.058931,1.253348
LINE886,0.127885,-0.841063,0.127885,3.347728,0.127885,1.253332
LINE887,0.075231,-0.841048,0.075231,3.347742,0.075231,1.253347
LINE888,0.068962,-0.841048,0.068962,3.347742,0.068962,1.253347
LINE889,0.062693,-0.841047,0.062693,3.347743,0.062693,1.253348
LINE890,0.127885,-0.841063,0.127885,3.347728,0.127885,1.253332
LINE891,0.075231,-0.841048,0.075231,3.347742,0.075231,1.253347
LINE892,0.068962,-0.841048,0.068962,3.347742,0.068962,1.253347
LINE893,0.062693,-0.841047,0.062693,3.347743,0.062693,1.253348
LINE894,0.067704,-0.841062,0.067704,3.347728,0.067704,1.253333
LINE895,0.060181,-0.841063,0.060181,3.347727,0.060181,1.253332
LINE896,0.075231,-0.841048,0.075231,3.347742,0.075231,1.253347
LINE897,0.068962,-0.841048,0.068962,3.347742,0.068962,1.253347
LINE898,0.062693,-0.841047,0.062693,3.347743,0.062693,1.253348
LINE899,0.067704,-0.841062,0.067704,3.347728,0.067704,1.253333
LINE900,0.075231,-0.841048,0.075231,3.347742,0.075231,1.253347
LINE901,0.075231,-0.841048,0.075231,3.347742,0.075231,1.253347
LINE902,0.075231,-0.841048,0.075231,3.347742,0.075231,1.253347
LINE903,0.075231,-0.841048,0.075231,3.347742,0.075231,1.253347
LINE904,0.075231,-0.841048,0.075231,3.347742,0.075231,1.253347
LINE905,0.075231,-0.841048,0.075231,3.347742,0.075231,1.253347
